xflr5 v6.47

 Calculated polar for: MH 60  10.08%

 1 1 Reynolds number fixed          Mach number fixed         

 xtrf =   1.000 (top)        1.000 (bottom)
 Mach =   0.000     Re =     0.100 e 6     Ncrit =   9.000

  alpha     CL        CD       CDp       Cm    Top Xtr Bot Xtr   Cpmin    Chinge    XCp    
 ------- -------- --------- --------- -------- ------- ------- -------- --------- ---------
 -20.000  -0.8104   0.28896   0.28422   0.0907  1.0000  0.0336  -1.7431   0.0000   0.3484
 -19.500  -0.7992   0.28123   0.27647   0.0864  1.0000  0.0337  -1.7728   0.0000   0.3453
 -19.000  -0.7873   0.27325   0.26850   0.0822  1.0000  0.0338  -1.7989   0.0000   0.3421
 -18.500  -0.7644   0.24858   0.24385   0.0817  1.0000  0.0358  -1.7379   0.0000   0.3447
 -18.000  -0.7463   0.23824   0.23348   0.0797  1.0000  0.0375  -1.6431   0.0000   0.3451
 -17.500  -0.7303   0.22990   0.22513   0.0767  1.0000  0.0395  -1.5907   0.0000   0.3438
 -17.000  -0.7148   0.22208   0.21732   0.0732  1.0000  0.0418  -1.5567   0.0000   0.3417
 -16.500  -0.6995   0.21458   0.20982   0.0695  1.0000  0.0447  -1.5354   0.0000   0.3391
 -16.000  -0.6846   0.20748   0.20273   0.0654  1.0000  0.0481  -1.5299   0.0000   0.3357
 -15.500  -0.6720   0.20239   0.19767   0.0601  1.0000  0.0518  -1.5653   0.0000   0.3301
 -15.000  -0.6686   0.20242   0.19776   0.0534  1.0000  0.0538  -1.6578   0.0000   0.3212
 -14.500  -0.6592   0.19795   0.19321   0.0481  1.0000  0.0544  -1.7305   0.0000   0.3146
 -14.000  -0.6474   0.19124   0.18653   0.0435  1.0000  0.0547  -1.7856   0.0000   0.3092
 -13.500  -0.6305   0.17385   0.16920   0.0423  1.0000  0.0576  -1.7942   0.0000   0.3092
 -13.000  -0.6038   0.16444   0.15978   0.0421  1.0000  0.0618  -1.6721   0.0000   0.3122
 -12.500  -0.5886   0.15728   0.15265   0.0394  1.0000  0.0664  -1.6566   0.0000   0.3097
 -12.000  -0.5776   0.15031   0.14571   0.0356  1.0000  0.0718  -1.6867   0.0000   0.3047
 -11.500  -0.5771   0.14536   0.14083   0.0290  1.0000  0.0776  -1.8019   0.0000   0.2938
 -11.000  -0.5779   0.14156   0.13712   0.0217  1.0000  0.0799  -1.9262   0.0000   0.2816
 -10.500  -0.5726   0.13442   0.13005   0.0162  1.0000  0.0803  -2.0101   0.0000   0.2726
 -10.000  -0.5516   0.11874   0.11441   0.0187  1.0000  0.0870  -1.9249   0.0000   0.2782
  -9.500  -0.5340   0.11179   0.10751   0.0174  1.0000  0.0951  -1.8655   0.0000   0.2773
  -9.000  -0.5342   0.10516   0.10098   0.0110  1.0000  0.1050  -1.9495   0.0000   0.2657
  -8.500  -0.5494   0.10072   0.09672  -0.0028  1.0000  0.1099  -2.1442   0.0000   0.2406
  -8.000  -0.5380   0.08685   0.08296  -0.0009  1.0000  0.1173  -2.1112   0.0000   0.2442
  -7.500  -0.5198   0.08002   0.07620  -0.0022  1.0000  0.1268  -2.0488   0.0000   0.2419
  -7.000  -0.5175   0.07054   0.06672  -0.0148  1.0000  0.1376  -2.1717   0.0000   0.2178
  -6.500  -0.5092   0.05962   0.05570  -0.0229  1.0000  0.1521  -2.2489   0.0000   0.2018
  -6.000  -0.4966   0.03648   0.03050  -0.0290  1.0000  0.0514  -3.2368   0.0000   0.1873
  -5.500  -0.4881   0.03122   0.02459  -0.0234  1.0000  0.0499  -3.2639   0.0000   0.1979
  -5.000  -0.4665   0.02682   0.01951  -0.0187  1.0000  0.0501  -3.2315   0.0000   0.2060
  -4.500  -0.4114   0.02286   0.01489  -0.0189  0.9930  0.0559  -3.0733   0.0000   0.2001
  -4.000  -0.3350   0.01833   0.01019  -0.0231  0.9778  0.1012  -2.9069   0.0000   0.1770
  -3.500  -0.2691   0.01549   0.00872  -0.0258  0.9614  0.3904  -2.5898   0.0000   0.1499
  -3.000  -0.1931   0.01481   0.00854  -0.0293  0.9436  0.5661  -1.9869   0.0000   0.0935
  -2.500  -0.1299   0.01427   0.00850  -0.0291  0.9243  0.7409  -1.4681   0.0000   0.0208
  -2.000  -0.0246   0.01427   0.00854  -0.0351  0.9094  0.9126  -0.8188   0.0000  -1.2001
  -1.500   0.1194   0.01410   0.00780  -0.0507  0.8937  0.9938  -0.4418   0.0000   0.6769
  -1.000   0.1618   0.01424   0.00765  -0.0494  0.8637  1.0000  -0.4794   0.0000   0.5566
  -0.500   0.1970   0.01467   0.00781  -0.0458  0.8379  1.0000  -0.5199   0.0000   0.4827
   0.000   0.2328   0.01493   0.00783  -0.0415  0.8102  1.0000  -0.5621   0.0000   0.4274
   0.500   0.2750   0.01530   0.00806  -0.0389  0.7823  1.0000  -0.6142   0.0000   0.3902
   1.000   0.3134   0.01561   0.00816  -0.0342  0.7583  1.0000  -0.6677   0.0000   0.3574
   1.500   0.3587   0.01566   0.00814  -0.0317  0.7276  1.0000  -0.7347   0.0000   0.3362
   2.000   0.4033   0.01593   0.00831  -0.0287  0.7011  1.0000  -0.8038   0.0000   0.3187
   2.500   0.4480   0.01576   0.00803  -0.0249  0.6716  1.0000  -0.8886   0.0000   0.3029
   3.000   0.4964   0.01597   0.00825  -0.0230  0.6389  1.0000  -0.9767   0.0000   0.2932
   3.500   0.5439   0.01596   0.00814  -0.0200  0.6070  1.0000  -1.0759   0.0000   0.2833
   4.000   0.5929   0.01592   0.00800  -0.0175  0.5714  1.0000  -1.1895   0.0000   0.2756
   4.500   0.6429   0.01612   0.00825  -0.0158  0.5310  1.0000  -1.3110   0.0000   0.2702
   5.000   0.6928   0.01657   0.00868  -0.0141  0.4900  1.0000  -1.4557   0.0000   0.2657
   5.500   0.7421   0.01713   0.00919  -0.0125  0.4461  1.0000  -1.6146   0.0000   0.2616
   6.000   0.7911   0.01798   0.01007  -0.0110  0.4025  1.0000  -1.8185   0.0000   0.2582
   6.500   0.8390   0.01893   0.01095  -0.0096  0.3557  1.0000  -2.0790   0.0000   0.2552
   7.000   0.8859   0.02024   0.01224  -0.0082  0.3114  1.0000  -2.4033   0.0000   0.2525
   7.500   0.9311   0.02164   0.01361  -0.0068  0.2671  1.0000  -2.9476   0.0000   0.2499
   8.000   0.9748   0.02353   0.01552  -0.0053  0.2282  1.0000  -3.5069   0.0000   0.2475
   8.500   1.0157   0.02547   0.01748  -0.0038  0.1905  1.0000  -4.0803   0.0000   0.2451
   9.000   1.0537   0.02800   0.02006  -0.0020  0.1562  1.0000  -4.6409   0.0000   0.2427
   9.500   1.0861   0.03067   0.02307   0.0001  0.1232  1.0000  -5.1747   0.0000   0.2400
  10.000   1.1121   0.03457   0.02713   0.0025  0.0946  1.0000  -5.6107   0.0000   0.2371
  10.500   1.1306   0.03681   0.02952   0.0052  0.0732  1.0000  -6.0483   0.0000   0.2340
  11.000   1.1405   0.04298   0.03630   0.0084  0.0621  1.0000  -6.2245   0.0000   0.2307
  11.500   1.1372   0.04828   0.04199   0.0116  0.0552  1.0000  -6.3511   0.0000   0.2271
  12.000   1.1238   0.05514   0.04919   0.0132  0.0516  1.0000  -6.3925   0.0000   0.2248
  12.500   1.0936   0.06430   0.05880   0.0122  0.0503  1.0000  -6.2804   0.0000   0.2247
  13.000   1.0522   0.07539   0.07033   0.0074  0.0507  1.0000  -6.0653   0.0000   0.2280
  13.500   0.9143   0.10959   0.10501  -0.0175  0.0640  1.0000  -4.6964   0.0000   0.2542
  14.000   0.8593   0.13446   0.12949  -0.0304  0.0676  1.0000  -3.8915   0.0000   0.2708
  14.500   0.8390   0.15134   0.14630  -0.0382  0.0679  1.0000  -3.4778   0.0000   0.2808
  15.500   0.8142   0.18547   0.18035  -0.0555  0.1019  1.0000  -2.5072   0.0000   0.3038
  16.000   0.8403   0.19660   0.19158  -0.0550  0.0980  1.0000  -2.6499   0.0000   0.3005
  16.500   0.8458   0.21511   0.21006  -0.0581  0.0952  1.0000  -2.5583   0.0000   0.3034
  17.000   0.8434   0.21859   0.21350  -0.0649  0.0936  1.0000  -2.4083   0.0000   0.3111
  17.500   0.8389   0.22119   0.21604  -0.0725  0.0811  1.0000  -2.2594   0.0000   0.3198
  18.000   0.8574   0.22983   0.22492  -0.0734  0.0739  1.0000  -2.3285   0.0000   0.3183
  18.500   0.8785   0.25111   0.24623  -0.0726  0.0694  1.0000  -2.3572   0.0000   0.3149
  19.000   0.8801   0.25673   0.25181  -0.0784  0.0685  1.0000  -2.2309   0.0000   0.3206
  19.500   0.8761   0.26001   0.25504  -0.0865  0.0627  1.0000  -2.0503   0.0000   0.3296
  20.000   0.8849   0.26947   0.26452  -0.0901  0.0569  1.0000  -2.0328   0.0000   0.3321
  20.500   0.8955   0.27897   0.27405  -0.0926  0.0528  1.0000  -2.0700   0.0000   0.3329
  21.000   0.9128   0.29099   0.28615  -0.0922  0.0493  1.0000  -2.2249   0.0000   0.3297
  21.500   0.9224   0.31190   0.30706  -0.0937  0.0476  1.0000  -2.1954   0.0000   0.3297
  22.000   0.9238   0.32047   0.31564  -0.0976  0.0473  1.0000  -2.1157   0.0000   0.3332
  22.500   0.9172   0.32623   0.32141  -0.1023  0.0467  1.0000  -1.9870   0.0000   0.3384
  23.000   0.9106   0.33170   0.32690  -0.1073  0.0441  1.0000  -1.8341   0.0000   0.3441
  23.500   0.9022   0.33957   0.33485  -0.1093  0.0403  1.0000  -1.7497   0.0000   0.3470
  24.000   0.8285   0.32780   0.32337  -0.1022  0.0388  1.0000  -1.5274   0.0000   0.3502
  24.500   0.8132   0.32795   0.32363  -0.1023  0.0360  1.0000  -1.4675   0.0000   0.3524
  25.000   0.8037   0.32884   0.32462  -0.1027  0.0338  1.0000  -1.4400   0.0000   0.3540


